LAMMPS (2 Aug 2023)
#This program is free software: you can redistribute it and/or modify
#    it under the terms of the GNU General Public License as published by
#    the Free Software Foundation, either version 3 of the License, or
#    (at your option) any later version.
#
#    This program is distributed in the hope that it will be useful,
#    but WITHOUT ANY WARRANTY; without even the implied warranty of
#    MERCHANTABILITY or FITNESS FOR A PARTICULAR PURPOSE.  See the
#    GNU General Public License for more details.

############## Nbb=3 Janani Sampath#################

units		lj
atom_style	full

read_data     input_semiflexible_dispersity.lammps #input_SemiFlexible.lammps
Reading data file ...
  orthogonal box = (-24.750299 -24.750299 -24.750299) to (24.750299 24.750299 24.750299)
  reading atoms ...
  103098 atoms
  scanning bonds ...
  scanning angles ...
  reading bonds ...
  102098 bonds
  reading angles ...
  101098 angles
Finding 1-2 1-3 1-4 neighbors ...
     2 = max # of 1-2 neighbors
     2 = max # of 1-3 neighbors
     4 = max # of 1-4 neighbors
     6 = max # of special neighbors

pair_style      soft 1.266 # soft 1.266
pair_coeff      * * 0.0
variable        prefactor equal 40.0*elapsed/100000
fix             softpushoff all adapt 1 pair soft a * * v_prefactor

bond_style	fene
bond_coeff	1 30.0 1.5 1.0 1.0
special_bonds	fene
Finding 1-2 1-3 1-4 neighbors ...
     2 = max # of 1-2 neighbors
     6 = max # of special neighbors

angle_style	cosine
angle_coeff	1 1.5

#dihedral_style	harmonic
#dihedral_coeff	1 80.0 1 2

#neighbor	1.0 bin

neigh_modify	every 1 delay 0 check yes

fix		fix1 all nvt temp 1.0 1.0 1.0

timestep	0.001

thermo		1000

thermo_style 	custom step temp press ke pe ebond eimp evdwl ecoul elong lx ly lz

#################Soft Pushoff#################

dump		dump1 all custom 50000 pushoff_semi_poly.dump id mol type q xs ys zs ix iy iz

run		100000
Generated 0 of 0 mixed pair_coeff terms from geometric mixing rule
Step          Temp          Press          KinEng         PotEng         E_bond        E_impro         E_vdwl         E_coul         E_long           Lx             Ly             Lz
0   0             -2.2859765      0              21.513436      20.045256      0              0              0              0              49.500597      49.500597      49.500597
Averages over the last 51 of 101 rows, steps 50000 to 100000:
Temp Press KinEng PotEng E_bond E_impro E_vdwl E_coul E_long Lx Ly Lz
1.0008 17.8079 1.50118 23.6993 20.5413 0 2.39241 0 0 49.5006 49.5006 49.5006
Loop time of 1769.72 on 1 procs for 100000 steps with 103098 atoms

unfix		softpushoff

undump		dump1

#################Equilibration##################

pair_style 	lj/cut 2.5

pair_modify	shift yes

pair_coeff      * * 1.0 1.0

unfix		fix1

fix		fix2 all npt temp 1.0 1.0 1.0 iso 0 0 100

reset_timestep	0

dump            dump2 all custom 50000 equilibration.dump id mol type q xs ys zs ix iy iz

dump_modify     dump2 sort id #sort per-atom lines by atom ID

run             500000
Generated 0 of 0 mixed pair_coeff terms from geometric mixing rule
Step          Temp          Press          KinEng         PotEng         E_bond        E_impro         E_vdwl         E_coul         E_long           Lx             Ly             Lz
0   1.0021187      0.47786823     1.5031635      16.665916      20.581793      0             -4.6777816      0              0              49.500597      49.500597      49.500597
Averages over the last 251 of 501 rows, steps 250000 to 500000:
Temp Press KinEng PotEng E_bond E_impro E_vdwl E_coul E_long Lx Ly Lz
0.999932 -0.00276898 1.49988 16.8537 20.4991 0 -4.4374 0 0 48.8225 48.8225 48.8225
Loop time of 22653.1 on 1 procs for 500000 steps with 103098 atoms

undump          dump2

#################Production##################

reset_timestep	0

variable f file python.txt

variable s equal next(f)

dump dump3 all custom 1000 production_SemiFlexible_dispersity.dump id mol type q xs ys zs ix iy iz

dump_modify dump3 sort id #sort per-atom lines by atom ID

dump_modify dump3 every v_s

dump_modify dump3 append yes

restart 1048576 imers.restart

run	1001390
Generated 0 of 0 mixed pair_coeff terms from geometric mixing rule
Step          Temp          Press          KinEng         PotEng         E_bond        E_impro         E_vdwl         E_coul         E_long           Lx             Ly             Lz
0   1.0004748     -0.010888703    1.5006976      16.854289      20.499458      0             -4.4353357      0              0              48.827843      48.827843      48.827843
Averages over the last 502 of 1003 rows, steps 501000 to 1001390:
Temp Press KinEng PotEng E_bond E_impro E_vdwl E_coul E_long Lx Ly Lz
0.999898 -0.000519512 1.49983 16.8446 20.4991 0 -4.43957 0 0 48.8158 48.8158 48.8158
Loop time of 44907.8 on 1 procs for 1001390 steps with 103098 atoms
